# generated using pymatgen
data_Ca2MgSi2O7
_symmetry_space_group_name_H-M   'P 1'
_cell_length_a   5.05302356
_cell_length_b   7.90789641
_cell_length_c   7.90789641
_cell_angle_alpha   90.00000000
_cell_angle_beta   90.00000000
_cell_angle_gamma   90.00000000
_symmetry_Int_Tables_number   1
_chemical_formula_structural   Ca2MgSi2O7
_chemical_formula_sum   'Ca4 Mg2 Si4 O14'
_cell_volume   315.989947235
_cell_formula_units_Z   2
loop_
 _symmetry_equiv_pos_site_id
 _symmetry_equiv_pos_as_xyz
  1  'x, y, z'
loop_
 _atom_site_type_symbol
 _atom_site_label
 _atom_site_symmetry_multiplicity
 _atom_site_fract_x
 _atom_site_fract_y
 _atom_site_fract_z
 _atom_site_occupancy
  O  O1  1  0.780903  0.684844  0.582009  1
  O  O2  1  0.780903  0.315156  0.417991  1
  O  O3  1  0.219097  0.417991  0.684844  1
  O  O4  1  0.219097  0.582009  0.315156  1
  O  O5  1  0.780903  0.917991  0.815156  1
  O  O6  1  0.219097  0.815156  0.082009  1
  O  O7  1  0.219097  0.184844  0.917991  1
  O  O8  1  0.780903  0.082009  0.184844  1
  O  O9  1  0.250537  0.857257  0.642743  1
  O  O10  1  0.749463  0.642743  0.142743  1
  O  O11  1  0.813508  0.000000  0.500000  1
  O  O12  1  0.186492  0.500000  0.000000  1
  O  O13  1  0.250537  0.142743  0.357257  1
  O  O14  1  0.749463  0.357257  0.857257  1
  Mg  Mg15  1  0.000000  0.000000  0.000000  1
  Mg  Mg16  1  0.000000  0.500000  0.500000  1
  Si  Si17  1  0.069277  0.640869  0.140869  1
  Si  Si18  1  0.930723  0.140869  0.359131  1
  Si  Si19  1  0.069277  0.359131  0.859131  1
  Si  Si20  1  0.930723  0.859131  0.640869  1
  Ca  Ca21  1  0.497281  0.169946  0.669946  1
  Ca  Ca22  1  0.502719  0.330054  0.169946  1
  Ca  Ca23  1  0.502719  0.669946  0.830054  1
  Ca  Ca24  1  0.497281  0.830054  0.330054  1