
#(C) 2018 by FIZ Karlsruhe - Leibniz Institute for Information Infrastructure.  All rights reserved.
data_67453-ICSD
_database_code_ICSD 67453
_audit_creation_date 1992-08-20
_audit_update_record 2012-02-01
_chemical_name_systematic 'Zinc sulfide'
_chemical_formula_structural 'Zn S'
_chemical_formula_sum 'S1 Zn1'
_chemical_name_structure_type Wurtzite-ZnS(2H)
_chemical_name_mineral Wurtzite
_exptl_crystal_density_diffrn 4.08
_publ_section_title

;
U parameters for the wurtzite structure of Zn S and Zn O using powder neutron
diffraction
;
loop_
_citation_id
_citation_journal_full
_citation_year
_citation_journal_volume
_citation_page_first
_citation_page_last
_citation_journal_id_ASTM
primary 'Acta Crystallographica, Section C: Crystal Structure Communications'
1989 45 1867 1870 ACSCEE
loop_
_publ_author_name
'Kisi, E.H.'
'Elcombe, M.M.'
_cell_length_a 3.8227(1)
_cell_length_b 3.8227(1)
_cell_length_c 6.2607(1)
_cell_angle_alpha 90.
_cell_angle_beta 90.
_cell_angle_gamma 120.
_cell_volume 79.23
_cell_formula_units_Z 2
_symmetry_space_group_name_H-M 'P 63 m c'
_symmetry_Int_Tables_number 186
_refine_ls_R_factor_all 0.0575
loop_
_symmetry_equiv_pos_site_id
_symmetry_equiv_pos_as_xyz
1 '-x, -x+y, z+1/2'
2 'x-y, -y, z+1/2'
3 'y, x, z+1/2'
4 'x-y, x, z+1/2'
5 'y, -x+y, z+1/2'
6 '-x, -y, z+1/2'
7 'x, x-y, z'
8 '-x+y, y, z'
9 '-y, -x, z'
10 '-x+y, -x, z'
11 '-y, x-y, z'
12 'x, y, z'
loop_
_atom_type_symbol
_atom_type_oxidation_number
Zn2+ 2
S2- -2
loop_
_atom_site_label
_atom_site_type_symbol
_atom_site_symmetry_multiplicity
_atom_site_Wyckoff_symbol
_atom_site_fract_x
_atom_site_fract_y
_atom_site_fract_z
_atom_site_B_iso_or_equiv
_atom_site_occupancy
_atom_site_attached_hydrogens
Zn1 Zn2+ 2 b 0.3333 0.6667 0 0.90(1) 1. 0
S1 S2- 2 b 0.3333 0.6667 0.3748(2) 0.72(2) 1. 0
#End of TTdata_67453-ICSD