# generated using pymatgen
data_K2NiF4
_symmetry_space_group_name_H-M   'P 1'
_cell_length_a   4.07499844
_cell_length_b   4.07499805
_cell_length_c   7.20137584
_cell_angle_alpha   106.43526748
_cell_angle_beta   106.43526585
_cell_angle_gamma   89.99999746
_symmetry_Int_Tables_number   1
_chemical_formula_structural   K2NiF4
_chemical_formula_sum   'K2 Ni1 F4'
_cell_volume   109.593271037
_cell_formula_units_Z   1
loop_
 _symmetry_equiv_pos_site_id
 _symmetry_equiv_pos_as_xyz
  1  'x, y, z'
loop_
 _atom_site_type_symbol
 _atom_site_label
 _atom_site_symmetry_multiplicity
 _atom_site_fract_x
 _atom_site_fract_y
 _atom_site_fract_z
 _atom_site_occupancy
  K  K1  1  0.354675  0.354675  0.709349  1
  K  K2  1  0.645325  0.645325  0.290651  1
  Ni  Ni3  1  0.000000  0.000000  0.000000  1
  F  F4  1  0.500000  0.000000  0.000000  1
  F  F5  1  0.000000  0.500000  0.000000  1
  F  F6  1  0.153710  0.153710  0.307419  1
  F  F7  1  0.846290  0.846290  0.692581  1

