
#(C) 2017 by FIZ Karlsruhe - Leibniz Institute for Information Infrastructure.  All rights reserved.
data_200637-ICSD
_database_code_ICSD 200637
_audit_creation_date 1980-01-01
_audit_update_record 2006-04-01
_chemical_name_systematic 'Thallium tetrafluoroaluminate'
_chemical_formula_structural 'Tl (Al F4)'
_chemical_formula_sum 'Al1 F4 Tl1'
_chemical_name_structure_type KAlF4
_exptl_crystal_density_diffrn 6.13
_publ_section_title

;
Etude de la filiation structurale des phases M(I) Al F4 (M(I) = K, Rb, Tl, N
H4, Cs)
;
loop_
_citation_id
_citation_journal_full
_citation_year
_citation_journal_volume
_citation_page_first
_citation_page_last
_citation_journal_id_ASTM
primary 'Revue de Chimie Minerale' 1979 16 490 500 RVCMA8
loop_
_publ_author_name
'Fourquet, J.L.'
'Plet, F.'
'Courbion, G.'
'Bulou, A.'
'de Pape, R.'
_cell_length_a 3.616(3)
_cell_length_b 3.616(3)
_cell_length_c 6.366(3)
_cell_angle_alpha 90.
_cell_angle_beta 90.
_cell_angle_gamma 90.
_cell_volume 83.24
_cell_formula_units_Z 1
_symmetry_space_group_name_H-M 'P 4/m m m'
_symmetry_Int_Tables_number 123
_refine_ls_R_factor_all 0.05
loop_
_symmetry_equiv_pos_site_id
_symmetry_equiv_pos_as_xyz
1 'y, x, -z'
2 '-y, -x, -z'
3 '-y, x, -z'
4 'y, -x, -z'
5 '-x, y, -z'
6 'x, -y, -z'
7 'x, y, -z'
8 '-x, -y, -z'
9 '-y, -x, z'
10 'y, x, z'
11 'y, -x, z'
12 '-y, x, z'
13 'x, -y, z'
14 '-x, y, z'
15 '-x, -y, z'
16 'x, y, z'
loop_
_atom_type_symbol
_atom_type_oxidation_number
Tl1+ 1
Al3+ 3
F1- -1
loop_
_atom_site_label
_atom_site_type_symbol
_atom_site_symmetry_multiplicity
_atom_site_Wyckoff_symbol
_atom_site_fract_x
_atom_site_fract_y
_atom_site_fract_z
_atom_site_B_iso_or_equiv
_atom_site_occupancy
_atom_site_attached_hydrogens
Tl1 Tl1+ 1 a 0 0 0 2.78 1. 0
Al1 Al3+ 1 d 0.5 0.5 0.5 1.26 1. 0
F1 F1- 2 e 0.5 0 0.5 2.26 1. 0
F2 F1- 2 h 0.5 0.5 0.21(1) 5.71 1. 0
#End of TTdata_200637-ICSD